sucr-aa.pdb
 OpenBabel05062318263D

 77 78  0  0  1  0  0  0  0  0999 V2000
    3.9360    3.2740   -3.2640 H   0  0  0  0  0  0  0  0  0  0  0  0
    3.7560    2.3480   -3.1120 O   0  0  0  0  0  0  0  0  0  0  0  0
    4.7670    1.4210   -2.2500 S   0  0  0  0  0  0  0  0  0  0  0  0
    5.9800    2.0270   -2.2770 O   0  0  0  0  0  0  0  0  0  0  0  0
    4.4930    0.1320   -2.6080 O   0  0  0  0  0  0  0  0  0  0  0  0
    4.1010    1.7140   -0.7910 O   0  0  0  0  0  0  0  0  0  0  0  0
    2.8030    1.3240   -0.3940 C   0  0  0  0  0  0  0  0  0  0  0  0
    2.1430    1.2250   -1.2970 H   0  0  0  0  0  0  0  0  0  0  0  0
    2.4240    2.1540    0.2720 H   0  0  0  0  0  0  0  0  0  0  0  0
    2.8800    0.0220    0.4080 C   0  0  2  0  0  0  0  0  0  0  0  0
    3.8580   -0.0330    0.9640 H   0  0  0  0  0  0  0  0  0  0  0  0
    2.6560   -1.2410   -0.4400 C   0  0  1  0  0  0  0  0  0  0  0  0
    2.1990   -1.0040   -1.4420 H   0  0  0  0  0  0  0  0  0  0  0  0
    3.8890   -1.8890   -0.6430 O   0  0  0  0  0  0  0  0  0  0  0  0
    3.9710   -3.2510   -1.5830 S   0  0  0  0  0  0  0  0  0  0  0  0
    5.2280   -3.7330   -1.4980 O   0  0  0  0  0  0  0  0  0  0  0  0
    2.8220   -3.9290   -1.2430 O   0  0  0  0  0  0  0  0  0  0  0  0
    3.7150   -2.6030   -3.0070 O   0  0  0  0  0  0  0  0  0  0  0  0
    4.0640   -1.7490   -3.2870 H   0  0  0  0  0  0  0  0  0  0  0  0
    1.6860   -2.1120    0.4050 C   0  0  2  0  0  0  0  0  0  0  0  0
    2.2640   -2.8270    1.0600 H   0  0  0  0  0  0  0  0  0  0  0  0
    0.8140   -2.7940   -0.4340 O   0  0  0  0  0  0  0  0  0  0  0  0
    0.7800   -4.4800   -0.5460 S   0  0  0  0  0  0  0  0  0  0  0  0
    0.6540   -4.8920   -1.8340 O   0  0  0  0  0  0  0  0  0  0  0  0
    1.4870   -4.9620    0.5130 O   0  0  0  0  0  0  0  0  0  0  0  0
   -0.7820   -4.4980   -0.0400 O   0  0  0  0  0  0  0  0  0  0  0  0
   -1.4750   -4.7070   -0.6700 H   0  0  0  0  0  0  0  0  0  0  0  0
    0.9660   -1.0610    1.3050 C   0  0  2  0  0  0  0  0  0  0  0  0
    1.8430    0.0640    1.4030 O   0  0  0  0  0  0  0  0  0  0  0  0
    0.7060   -1.6110    2.7190 C   0  0  0  0  0  0  0  0  0  0  0  0
   -0.1760   -2.3120    2.6900 H   0  0  0  0  0  0  0  0  0  0  0  0
    1.6280   -2.1420    3.0820 H   0  0  0  0  0  0  0  0  0  0  0  0
    0.3670   -0.5790    3.6030 O   0  0  0  0  0  0  0  0  0  0  0  0
    1.3440    0.1910    4.6980 S   0  0  0  0  0  0  0  0  0  0  0  0
    0.7900    1.4440    4.7320 O   0  0  0  0  0  0  0  0  0  0  0  0
    1.4940   -0.6170    5.7750 O   0  0  0  0  0  0  0  0  0  0  0  0
    2.7200    0.1410    3.9000 O   0  0  0  0  0  0  0  0  0  0  0  0
    2.9190    0.7420    3.1710 H   0  0  0  0  0  0  0  0  0  0  0  0
   -0.1360   -0.5600    0.5790 O   0  0  0  0  0  0  0  0  0  0  0  0
   -1.2220    0.0100    1.2770 C   0  0  2  0  0  0  0  0  0  0  0  0
   -1.3620   -0.3820    2.3250 H   0  0  0  0  0  0  0  0  0  0  0  0
   -2.4980   -0.2160    0.4350 C   0  0  2  0  0  0  0  0  0  0  0  0
   -3.3970    0.0270    1.0720 H   0  0  0  0  0  0  0  0  0  0  0  0
   -2.5710   -1.5470   -0.0060 O   0  0  0  0  0  0  0  0  0  0  0  0
   -3.2600   -2.8180    0.7990 S   0  0  0  0  0  0  0  0  0  0  0  0
   -3.3180   -3.7910   -0.1510 O   0  0  0  0  0  0  0  0  0  0  0  0
   -2.7450   -2.8380    2.0550 O   0  0  0  0  0  0  0  0  0  0  0  0
   -4.7310   -2.1710    0.9020 O   0  0  0  0  0  0  0  0  0  0  0  0
   -5.2510   -1.9960    0.1100 H   0  0  0  0  0  0  0  0  0  0  0  0
   -2.5220    0.6370   -0.8470 C   0  0  1  0  0  0  0  0  0  0  0  0
   -1.8270    0.1850   -1.6140 H   0  0  0  0  0  0  0  0  0  0  0  0
   -3.8470    0.6480   -1.3180 O   0  0  0  0  0  0  0  0  0  0  0  0
   -4.3530   -0.1670   -2.6870 S   0  0  0  0  0  0  0  0  0  0  0  0
   -5.6170    0.2290   -2.9700 O   0  0  0  0  0  0  0  0  0  0  0  0
   -3.2830   -0.4450   -3.4830 O   0  0  0  0  0  0  0  0  0  0  0  0
   -4.5280   -1.5880   -1.8550 O   0  0  0  0  0  0  0  0  0  0  0  0
   -3.8620   -2.2700   -1.9600 H   0  0  0  0  0  0  0  0  0  0  0  0
   -2.1280    2.0950   -0.5510 C   0  0  2  0  0  0  0  0  0  0  0  0
   -2.9500    2.6140    0.0200 H   0  0  0  0  0  0  0  0  0  0  0  0
   -1.9090    2.7980   -1.7640 O   0  0  0  0  0  0  0  0  0  0  0  0
   -3.0230    3.1230   -2.9140 S   0  0  0  0  0  0  0  0  0  0  0  0
   -2.4490    3.9530   -3.8160 O   0  0  0  0  0  0  0  0  0  0  0  0
   -3.6780    1.9540   -3.1940 O   0  0  0  0  0  0  0  0  0  0  0  0
   -3.9960    4.0450   -2.0160 O   0  0  0  0  0  0  0  0  0  0  0  0
   -4.0490    4.9910   -2.1500 H   0  0  0  0  0  0  0  0  0  0  0  0
   -0.8000    2.1300    0.2270 C   0  0  2  0  0  0  0  0  0  0  0  0
   -0.9380    1.3860    1.4380 O   0  0  0  0  0  0  0  0  0  0  0  0
    0.0290    1.6880   -0.3910 H   0  0  0  0  0  0  0  0  0  0  0  0
   -0.4610    3.5700    0.6320 C   0  0  0  0  0  0  0  0  0  0  0  0
   -1.2450    3.9810    1.3220 H   0  0  0  0  0  0  0  0  0  0  0  0
   -0.3870    4.1930   -0.3020 H   0  0  0  0  0  0  0  0  0  0  0  0
    0.8050    3.6220    1.2350 O   0  0  0  0  0  0  0  0  0  0  0  0
    1.1180    3.6000    2.8670 S   0  0  0  0  0  0  0  0  0  0  0  0
    1.4150    4.8730    3.2260 O   0  0  0  0  0  0  0  0  0  0  0  0
    1.9620    2.5360    3.0170 O   0  0  0  0  0  0  0  0  0  0  0  0
   -0.3750    3.2960    3.3500 O   0  0  0  0  0  0  0  0  0  0  0  0
   -0.6580    2.4190    3.6260 H   0  0  0  0  0  0  0  0  0  0  0  0
  1  2  1  0  0  0  0
  2  3  1  0  0  0  0
  3  4  1  0  0  0  0
  3  5  1  0  0  0  0
  3  6  1  0  0  0  0
  6  7  1  0  0  0  0
  7  8  1  0  0  0  0
  7  9  1  0  0  0  0
  7 10  1  0  0  0  0
 10 11  1  1  0  0  0
 10 12  1  0  0  0  0
 10 29  1  0  0  0  0
 12 13  1  6  0  0  0
 12 14  1  0  0  0  0
 12 20  1  0  0  0  0
 14 15  1  0  0  0  0
 15 16  1  0  0  0  0
 15 17  1  0  0  0  0
 15 18  1  0  0  0  0
 18 19  1  0  0  0  0
 20 21  1  1  0  0  0
 20 22  1  0  0  0  0
 20 28  1  0  0  0  0
 22 23  1  0  0  0  0
 23 24  1  0  0  0  0
 23 25  1  0  0  0  0
 23 26  1  0  0  0  0
 26 27  1  0  0  0  0
 28 29  1  0  0  0  0
 28 30  1  0  0  0  0
 28 39  1  6  0  0  0
 30 31  1  0  0  0  0
 30 32  1  0  0  0  0
 30 33  1  0  0  0  0
 33 34  1  0  0  0  0
 34 35  1  0  0  0  0
 34 36  1  0  0  0  0
 34 37  1  0  0  0  0
 37 38  1  0  0  0  0
 39 40  1  0  0  0  0
 40 41  1  1  0  0  0
 40 42  1  0  0  0  0
 40 67  1  0  0  0  0
 42 43  1  1  0  0  0
 42 44  1  0  0  0  0
 42 50  1  0  0  0  0
 44 45  1  0  0  0  0
 45 46  1  0  0  0  0
 45 47  1  0  0  0  0
 45 48  1  0  0  0  0
 48 49  1  0  0  0  0
 50 51  1  6  0  0  0
 50 52  1  0  0  0  0
 50 58  1  0  0  0  0
 52 53  1  0  0  0  0
 53 54  1  0  0  0  0
 53 55  1  0  0  0  0
 53 56  1  0  0  0  0
 56 57  1  0  0  0  0
 58 59  1  1  0  0  0
 58 60  1  0  0  0  0
 58 66  1  0  0  0  0
 60 61  1  0  0  0  0
 61 62  1  0  0  0  0
 61 63  1  0  0  0  0
 61 64  1  0  0  0  0
 64 65  1  0  0  0  0
 66 67  1  0  0  0  0
 66 68  1  6  0  0  0
 66 69  1  0  0  0  0
 69 70  1  0  0  0  0
 69 71  1  0  0  0  0
 69 72  1  0  0  0  0
 72 73  1  0  0  0  0
 73 74  1  0  0  0  0
 73 75  1  0  0  0  0
 73 76  1  0  0  0  0
 76 77  1  0  0  0  0
M  END
>  <HEADER>
    UNCLASSIFIED                            06-May-23

>  <TITLE>
    ALL ATOM STRUCTURE FOR MOLECULE UNL                                   

>  <AUTHOR>
    AUTOMATED TOPOLOGY BUILDER (ATB) REVISION 2022-10-31 14:18:01
   2  https://atb.uq.edu.au

$$$$
